  
       XFOIL         Version 6.94
  
 Calculated polar for: BOIS RENAN G. 3                                 
  
 1 1 Reynolds number fixed          Mach number fixed         
  
 xtrf =   1.000 (top)        1.000 (bottom)  
 Mach =   0.000     Re =     0.005 e 6     Ncrit =   9.000
  
  alpha     CL        CD       CDp       CM    Top_Xtr Bot_Xtr
 ------- -------- --------- --------- -------- ------- -------
   0.000  -0.0038   0.08731   0.05534  -0.0134  0.9998  1.0002
   0.250   0.0096   0.08848   0.05615  -0.0128  0.9998  1.0002
   0.500   0.0226   0.08970   0.05704  -0.0122  0.9998  1.0002
   0.750   0.0362   0.09094   0.05802  -0.0117  0.9998  1.0002
   1.000   0.0491   0.09228   0.05907  -0.0112  0.9998  1.0002
   1.250   0.0625   0.09365   0.06019  -0.0107  0.9998  1.0002
   1.500   0.0751   0.09505   0.06136  -0.0104  0.9998  1.0002
   1.750   0.0885   0.09652   0.06261  -0.0100  0.9998  1.0002
   2.000   0.1018   0.09805   0.06395  -0.0096  0.9998  1.0002
   2.250   0.1147   0.09960   0.06533  -0.0094  0.9998  1.0002
   2.500   0.1275   0.10127   0.06686  -0.0091  0.9998  1.0002
   2.750   0.1405   0.10294   0.06836  -0.0089  0.9998  1.0002
   3.000   0.1532   0.10468   0.06999  -0.0088  0.9998  1.0002
   0.000  -0.0038   0.08731   0.05534  -0.0134  0.9998  1.0002
   0.250   0.0096   0.08848   0.05615  -0.0128  0.9998  1.0002
   0.500   0.0226   0.08970   0.05704  -0.0122  0.9998  1.0002
   0.750   0.0362   0.09094   0.05802  -0.0117  0.9998  1.0002
   1.000   0.0491   0.09228   0.05907  -0.0112  0.9998  1.0002
   1.250   0.0625   0.09365   0.06019  -0.0107  0.9998  1.0002
   1.500   0.0751   0.09505   0.06136  -0.0104  0.9998  1.0002
   1.750   0.0885   0.09652   0.06261  -0.0100  0.9998  1.0002
   2.000   0.1018   0.09805   0.06395  -0.0096  0.9998  1.0002
   2.250   0.1147   0.09960   0.06533  -0.0094  0.9998  1.0002
   2.500   0.1275   0.10127   0.06686  -0.0091  0.9998  1.0002
   2.750   0.1405   0.10294   0.06836  -0.0089  0.9998  1.0002
   3.000   0.1532   0.10468   0.06999  -0.0088  0.9998  1.0002
