  
       XFOIL         Version 6.94
  
 Calculated polar for: BL BAP 02                                       
  
 1 1 Reynolds number fixed          Mach number fixed         
  
 xtrf =   1.000 (top)        1.000 (bottom)  
 Mach =   0.000     Re =     0.030 e 6     Ncrit =   9.000
  
  alpha     CL        CD       CDp       CM    Top_Xtr Bot_Xtr
 ------- -------- --------- --------- -------- ------- -------
  -3.000  -0.1679   0.05408   0.04496  -0.0421  0.9998  0.2913
  -2.750  -0.1241   0.05231   0.04262  -0.0467  0.9998  0.2765
  -2.500  -0.0901   0.05044   0.04062  -0.0487  0.9998  0.2716
  -2.250  -0.0545   0.04892   0.03892  -0.0509  0.9998  0.2674
  -2.000   0.0188   0.04686   0.03642  -0.0604  0.9826  0.2628
  -1.750   0.1080   0.04428   0.03322  -0.0721  0.9487  0.2590
  -1.500   0.1634   0.04183   0.03049  -0.0766  0.9085  0.2590
  -1.250   0.1744   0.04064   0.02935  -0.0729  0.8537  0.2599
  -1.000   0.1954   0.03951   0.02820  -0.0712  0.7493  0.2623
  -0.750   0.3065   0.03566   0.02350  -0.0835  0.6843  0.2813
  -0.500   0.3869   0.03372   0.02101  -0.0922  0.6453  0.3116
  -0.250   0.4377   0.03264   0.02018  -0.0964  0.6268  0.3742
   0.000   0.4710   0.03031   0.01900  -0.0951  0.6176  1.0002
   0.250   0.5173   0.03088   0.01851  -0.0976  0.6103  1.0002
   0.500   0.5624   0.03149   0.01842  -0.1008  0.6050  1.0002
   0.750   0.6046   0.03212   0.01865  -0.1038  0.6008  1.0002
   1.000   0.6471   0.03286   0.01904  -0.1070  0.5963  1.0002
   1.250   0.6884   0.03369   0.01960  -0.1100  0.5922  1.0002
   1.500   0.7279   0.03457   0.02032  -0.1127  0.5887  1.0002
   1.750   0.7659   0.03549   0.02117  -0.1153  0.5872  1.0002
   2.000   0.8026   0.03647   0.02216  -0.1178  0.5873  1.0002
   2.250   0.8377   0.03754   0.02329  -0.1200  0.5875  1.0002
   2.500   0.8711   0.03875   0.02460  -0.1220  0.5872  1.0002
   2.750   0.9025   0.04009   0.02603  -0.1237  0.5868  1.0002
   3.000   0.9308   0.04158   0.02767  -0.1250  0.5872  1.0002
   3.250   0.9556   0.04328   0.02957  -0.1260  0.5899  1.0002
   3.500   0.9794   0.04521   0.03168  -0.1269  0.5928  1.0002
   3.750   0.9960   0.04755   0.03429  -0.1270  0.5959  1.0002
   4.000   0.9972   0.05087   0.03791  -0.1255  0.6013  1.0002
   4.500   0.7503   0.07860   0.06631  -0.1065  0.6640  1.0002
   4.750   0.6791   0.08945   0.07720  -0.1050  0.7101  1.0002
